-------------------------------------------------------
          Amber 20 PMEMD                              2020
          -------------------------------------------------------

  [-O]verwriting output

File Assignments:

 Here is the input file:

A NPT simulation for common production-level simulations
 &cntrl
    imin=0,        ! No minimization
    irest=1,       ! This IS a restart of an old MD simulation
    ntx=5,         ! So our inpcrd file has velocities

    ! Temperature control
    ntt=3,         ! Langevin dynamics
    gamma_ln=1.0,  ! Friction coefficient (ps^-1)
    temp0=300,   ! Target temperature

    ! Potential energy control
    cut=9.0,       ! nonbonded cutoff, in Angstroms

    ! MD settings
    nstlim=250000, ! 250K steps, 1 ns total
    dt=0.004,      ! time step (ps)

    ! SHAKE
    ntc=2,         ! Constrain bonds containing hydrogen
    ntf=2,         ! Do not calculate forces of bonds containing hydrogen

    ! Control how often information is printed
    ntpr=1000,     ! Print energies every 1000 steps
    ntwx=25000,    ! Print coordinates every 25000 steps to the trajectory
    ntwr=10000,    ! Print a restart file every 10K steps (can be less frequent
!   ntwv=-1,       ! Uncomment to also print velocities to trajectory
!   ntwf=-1,       ! Uncomment to also print forces to trajectory
    ntxo=2,        ! Write NetCDF format
    ioutfm=1,      ! Write NetCDF format (always do this!)

    ! Wrap coordinates when printing them to the same unit cell
    iwrap=1,

    ! Constant pressure control.
    barostat=2,    ! MC barostat... change to 1 for Berendsen
    ntp=1,         ! 1=isotropic, 2=anisotropic, 3=semi-isotropic w/ surften
    pres0=1.0,     ! Target external pressure, in bar

    ! Set water atom/residue names for SETTLE recognition
    watnam='WAT',  ! Water residues are named WAT
    owtnm='O',     ! Water oxygens are named O
 /

Note: ig = -1. Setting random seed to   983943 based on wallclock time in
      microseconds.

--------------------------------------------------------------------------------
   1.  RESOURCE   USE:
--------------------------------------------------------------------------------

 getting box info from netcdf restart file
 NATOM  =  171335 NTYPES =      19 NBONH =  169579 MBONA  =    1749
 NTHETH =    1826 MTHETA =    2721 NPHIH =    4103 MPHIA  =    5347
 NHPARM =       0 NPARM  =       0 NNB   =  238448 NRES   =   56528
 NBONA  =    1749 NTHETA =    2721 NPHIA =    5347 NUMBND =      48
 NUMANG =      94 NPTRA  =     110 NATYP =       0 NPHB   =       0
 IFBOX  =       1 NMXRS  =      34 IFCAP =       0 NEXTRA =       0
 NCOPY  =       0

     BOX TYPE: RECTILINEAR

--------------------------------------------------------------------------------
   2.  CONTROL  DATA  FOR  THE  RUN
--------------------------------------------------------------------------------

General flags:
     imin    =       0, nmropt  =       0

Nature and format of input:
     ntx     =       5, irest   =       1, ntrx    =       1

Nature and format of output:
     ntxo    =       2, ntpr    =    1000, ntrx    =       1, ntwr    =   10000
     iwrap   =       1, ntwx    =   25000, ntwv    =       0, ntwe    =       0
     ioutfm  =       1, ntwprt  =       0, idecomp =       0, rbornstat=      0

Potential function:
     ntf     =       2, ntb     =       2, igb     =       0, nsnb    =      25
     ipol    =       0, gbsa    =       0, iesp    =       0
     dielc   =   1.00000, cut     =   9.00000, intdiel =   1.00000

Frozen or restrained atoms:
     ibelly  =       0, ntr     =       0

Molecular dynamics:
     nstlim  =    250000, nscm    =      1000, nrespa  =         1
     t       =   0.00000, dt      =   0.00400, vlimit  =  -1.00000

Langevin dynamics temperature regulation:
     ig      =  983943
     temp0   = 300.00000, tempi   =   0.00000, gamma_ln=   1.00000

Pressure regulation:
     ntp     =       1
     pres0   =   1.00000, comp    =  44.60000, taup    =   1.00000
     Monte-Carlo Barostat:
     mcbarint  =     100

SHAKE:
     ntc     =       2, jfastw  =       0
     tol     =   0.00001

Ewald parameters:
     verbose =       0, ew_type =       0, nbflag  =       1, use_pme =       1
     vdwmeth =       1, eedmeth =       1, netfrc  =       1
     Box X =  120.559   Box Y =  120.559   Box Z =  120.559
     Alpha =   90.000   Beta  =   90.000   Gamma =   90.000
     NFFT1 =  128       NFFT2 =  128       NFFT3 =  128
     Cutoff=    9.000   Tol   =0.100E-04
     Ewald Coefficient =  0.30768
     Interpolation order =    4

--------------------------------------------------------------------------------
   3.  ATOMIC COORDINATES AND VELOCITIES
--------------------------------------------------------------------------------

 begin time read from input coords =  9125.000 ps

 Number of triangulated 3-point waters found:    56263

     Sum of charges from parm topology file =   0.00000007
     Forcing neutrality...

--------------------------------------------------------------------------------
   4.  RESULTS
 NSTEP =     1000   TIME(PS) =    9129.000  TEMP(K) =   299.98  PRESS =     0.0
 Etot   =   -458844.2293  EKtot   =    102659.6641  EPtot      =   -561503.8933
 BOND   =       748.5921  ANGLE   =      1356.8772  DIHED      =      1816.0789
 1-4 NB =       679.7053  1-4 EEL =     -5927.7999  VDWAALS    =     82216.8170
 EELEC  =   -642394.1639  EHBOND  =         0.0000  RESTRAINT  =         0.0000
 EKCMT  =         0.0000  VIRIAL  =         0.0000  VOLUME     =   1752276.5589
                                                    Density    =         0.9897
 ------------------------------------------------------------------------------

      A V E R A G E S   O V E R     250 S T E P S

 NSTEP =   250000   TIME(PS) =   10125.000  TEMP(K) =   300.22  PRESS =     0.0
 Etot   =   -458987.6725  EKtot   =    102740.1137  EPtot      =   -561727.7862
 BOND   =       745.3907  ANGLE   =      1314.0166  DIHED      =      1801.3638
 1-4 NB =       672.6035  1-4 EEL =     -5888.8819  VDWAALS    =     81837.9798
 EELEC  =   -642210.2587  EHBOND  =         0.0000  RESTRAINT  =         0.0000
 EKCMT  =         0.0000  VIRIAL  =         0.0000  VOLUME     =   1754279.7597
                                                    Density    =         0.9886
 ------------------------------------------------------------------------------

      R M S  F L U C T U A T I O N S

 NSTEP =   250000   TIME(PS) =   10125.000  TEMP(K) =     0.71  PRESS =     0.0
 Etot   =       424.4281  EKtot   =       244.6557  EPtot      =       367.4906
 BOND   =        24.0579  ANGLE   =        27.3628  DIHED      =        18.6798
 1-4 NB =        10.6505  1-4 EEL =        27.9961  VDWAALS    =       402.5444
 EELEC  =       637.5626  EHBOND  =         0.0000  RESTRAINT  =         0.0000
 EKCMT  =         0.0000  VIRIAL  =         0.0000  VOLUME     =      2248.1329
                                                    Density    =         0.0013
 ------------------------------------------------------------------------------
